<?xml version="1.0" encoding="UTF-8"?>

<!-- generated on 2023-12-12 16:43:55 by Eclipse SUMO netedit Version 1.19.0
<configuration xmlns:xsi="http://www.w3.org/2001/XMLSchema-instance" xsi:noNamespaceSchemaLocation="http://sumo.dlr.de/xsd/neteditConfiguration.xsd">

    <input>
        <sumo-net-file value="D:\Always\Git_coder\port_simulation\port_simulation\nets\port1\port.net.xml"/>
    </input>

    <output>
        <output-file value="D:\Always\Git_coder\port_simulation\port_simulation\nets\port1\port.net.xml"/>
    </output>

    <processing>
        <geometry.min-radius.fix.railways value="false"/>
        <geometry.max-grade.fix value="false"/>
        <offset.disable-normalization value="true"/>
        <lefthand value="0"/>
    </processing>

    <junctions>
        <no-turnarounds value="true"/>
        <junctions.corner-detail value="5"/>
        <junctions.limit-turn-speed value="5.50"/>
        <rectangular-lane-cut value="0"/>
    </junctions>

    <pedestrian>
        <walkingareas value="0"/>
    </pedestrian>

</configuration>
-->

<net version="1.16" junctionCornerDetail="5" limitTurnSpeed="5.50" xmlns:xsi="http://www.w3.org/2001/XMLSchema-instance" xsi:noNamespaceSchemaLocation="http://sumo.dlr.de/xsd/net_file.xsd">

    <location netOffset="0.00,0.00" convBoundary="0.00,0.00,685.23,600.63" origBoundary="0.00,0.00,400.00,400.00" projParameter="!"/>

    <edge id=":C0_0" function="internal">
        <lane id=":C0_0_0" index="0" speed="3.90" length="2.58" shape="3.20,1.60 2.50,1.70 2.00,2.00 1.70,2.50 1.60,3.20"/>
    </edge>
    <edge id=":C2_0" function="internal">
        <lane id=":C2_0_0" index="0" speed="6.51" length="9.03" shape="7.20,201.60 4.75,201.95 3.00,203.00 1.95,204.75 1.60,207.20"/>
    </edge>
    <edge id=":C2_1" function="internal">
        <lane id=":C2_1_0" index="0" speed="13.89" length="11.20" shape="1.60,196.00 1.60,207.20"/>
    </edge>
    <edge id=":C3_0" function="internal">
        <lane id=":C3_0_0" index="0" speed="3.65" length="1.44" shape="7.20,301.60 6.00,300.80"/>
    </edge>
    <edge id=":C3_2" function="internal">
        <lane id=":C3_2_0" index="0" speed="3.65" length="3.23" shape="6.00,300.80 5.60,300.00 6.00,299.20 7.20,298.40"/>
    </edge>
    <edge id=":C3_1" function="internal">
        <lane id=":C3_1_0" index="0" speed="6.51" length="9.03" shape="1.60,292.80 1.95,295.25 3.00,297.00 4.75,298.05 7.20,298.40"/>
    </edge>
    <edge id=":D0_0" function="internal">
        <lane id=":D0_0_0" index="0" speed="6.51" length="9.04" shape="295.21,7.21 294.85,4.76 293.80,3.00 292.05,1.95 289.60,1.60"/>
    </edge>
    <edge id=":D0_1" function="internal">
        <lane id=":D0_1_0" index="0" speed="3.65" length="4.67" shape="298.41,7.21 299.21,6.01 300.01,5.61 300.81,6.01 301.61,7.20"/>
    </edge>
    <edge id=":D0_2" function="internal">
        <lane id=":D0_2_0" index="0" speed="6.51" length="9.03" shape="310.40,1.60 307.95,1.95 306.20,3.00 305.15,4.75 304.81,7.20"/>
        <lane id=":D0_2_1" index="1" speed="7.32" length="11.73" shape="310.40,1.60 306.55,1.95 303.80,3.00 302.15,4.75 301.61,7.20"/>
    </edge>
    <edge id=":D0_4" function="internal">
        <lane id=":D0_4_0" index="0" speed="13.89" length="20.80" shape="310.40,1.60 289.60,1.60"/>
    </edge>
    <edge id=":D1_0" function="internal">
        <lane id=":D1_0_0" index="0" speed="13.89" length="11.19" shape="295.20,107.20 295.30,96.01"/>
        <lane id=":D1_0_1" index="1" speed="13.89" length="11.19" shape="298.40,107.20 298.50,96.01"/>
    </edge>
    <edge id=":D1_2" function="internal">
        <lane id=":D1_2_0" index="0" speed="3.65" length="1.44" shape="298.40,107.20 299.20,106.00"/>
    </edge>
    <edge id=":D1_8" function="internal">
        <lane id=":D1_8_0" index="0" speed="3.65" length="3.23" shape="299.20,106.00 300.00,105.60 300.80,106.00 301.60,107.20"/>
    </edge>
    <edge id=":D1_3" function="internal">
        <lane id=":D1_3_0" index="0" speed="6.53" length="9.11" shape="310.50,101.60 308.01,101.95 306.22,103.00 305.16,104.75 304.80,107.20"/>
    </edge>
    <edge id=":D1_4" function="internal">
        <lane id=":D1_4_0" index="0" speed="8.10" length="14.57" shape="310.50,101.60 305.25,101.25 301.50,100.20 299.25,98.45 298.50,96.01"/>
    </edge>
    <edge id=":D1_5" function="internal">
        <lane id=":D1_5_0" index="0" speed="13.89" length="11.20" shape="304.90,96.00 304.80,107.20"/>
        <lane id=":D1_5_1" index="1" speed="13.89" length="11.20" shape="301.70,96.00 301.60,107.20"/>
    </edge>
    <edge id=":D1_7" function="internal">
        <lane id=":D1_7_0" index="0" speed="3.65" length="1.44" shape="301.70,96.00 300.90,97.21"/>
    </edge>
    <edge id=":D1_9" function="internal">
        <lane id=":D1_9_0" index="0" speed="3.65" length="3.23" shape="300.90,97.21 300.10,97.61 299.30,97.21 298.50,96.01"/>
    </edge>
    <edge id=":D2_0" function="internal">
        <lane id=":D2_0_0" index="0" speed="6.51" length="9.03" shape="295.20,207.20 294.85,204.75 293.80,203.00 292.05,201.95 289.60,201.60"/>
    </edge>
    <edge id=":D2_1" function="internal">
        <lane id=":D2_1_0" index="0" speed="13.89" length="11.22" shape="295.20,207.20 295.20,195.98"/>
        <lane id=":D2_1_1" index="1" speed="13.89" length="11.22" shape="298.40,207.20 298.40,195.98"/>
    </edge>
    <edge id=":D2_3" function="internal">
        <lane id=":D2_3_0" index="0" speed="3.65" length="1.44" shape="298.40,207.20 299.20,206.00"/>
    </edge>
    <edge id=":D2_11" function="internal">
        <lane id=":D2_11_0" index="0" speed="3.65" length="3.23" shape="299.20,206.00 300.00,205.60 300.80,206.00 301.60,207.20"/>
    </edge>
    <edge id=":D2_4" function="internal">
        <lane id=":D2_4_0" index="0" speed="6.52" length="9.06" shape="310.41,201.56 307.95,201.92 306.20,202.98 305.15,204.74 304.80,207.20"/>
    </edge>
    <edge id=":D2_5" function="internal">
        <lane id=":D2_5_0" index="0" speed="13.89" length="20.81" shape="310.41,201.56 289.60,201.60"/>
    </edge>
    <edge id=":D2_6" function="internal">
        <lane id=":D2_6_0" index="0" speed="8.09" length="14.58" shape="310.41,201.56 305.15,201.23 301.40,200.19 299.15,198.44 298.40,195.98"/>
    </edge>
    <edge id=":D2_7" function="internal">
        <lane id=":D2_7_0" index="0" speed="13.89" length="11.22" shape="304.80,195.98 304.80,207.20"/>
        <lane id=":D2_7_1" index="1" speed="13.89" length="11.22" shape="301.60,195.98 301.60,207.20"/>
    </edge>
    <edge id=":D2_9" function="internal">
        <lane id=":D2_9_0" index="0" speed="8.10" length="2.38" shape="301.60,195.98 300.91,198.25"/>
    </edge>
    <edge id=":D2_10" function="internal">
        <lane id=":D2_10_0" index="0" speed="3.65" length="1.44" shape="301.60,195.98 300.80,197.18"/>
    </edge>
    <edge id=":D2_12" function="internal">
        <lane id=":D2_12_0" index="0" speed="8.10" length="12.20" shape="300.91,198.25 300.85,198.44 298.60,200.19 294.85,201.25 289.60,201.60"/>
    </edge>
    <edge id=":D2_13" function="internal">
        <lane id=":D2_13_0" index="0" speed="3.65" length="3.23" shape="300.80,197.18 300.00,197.58 299.20,197.18 298.40,195.98"/>
    </edge>
    <edge id=":D3_0" function="internal">
        <lane id=":D3_0_0" index="0" speed="6.51" length="9.03" shape="295.20,307.20 294.85,304.75 293.80,303.00 292.05,301.95 289.60,301.60"/>
    </edge>
    <edge id=":D3_1" function="internal">
        <lane id=":D3_1_0" index="0" speed="13.89" length="14.40" shape="295.20,307.20 295.20,292.80"/>
        <lane id=":D3_1_1" index="1" speed="13.89" length="14.40" shape="298.40,307.20 298.40,292.80"/>
    </edge>
    <edge id=":D3_3" function="internal">
        <lane id=":D3_3_0" index="0" speed="8.67" length="3.71" shape="298.40,307.20 299.11,303.56"/>
    </edge>
    <edge id=":D3_4" function="internal">
        <lane id=":D3_4_0" index="0" speed="3.65" length="1.44" shape="298.40,307.20 299.20,306.00"/>
    </edge>
    <edge id=":D3_18" function="internal">
        <lane id=":D3_18_0" index="0" speed="8.67" length="13.14" shape="299.11,303.56 299.15,303.35 301.40,300.60 305.15,298.95 310.40,298.40"/>
    </edge>
    <edge id=":D3_19" function="internal">
        <lane id=":D3_19_0" index="0" speed="3.65" length="3.23" shape="299.20,306.00 300.00,305.60 300.80,306.00 301.60,307.20"/>
    </edge>
    <edge id=":D3_5" function="internal">
        <lane id=":D3_5_0" index="0" speed="6.51" length="9.03" shape="310.40,301.60 307.95,301.95 306.20,303.00 305.15,304.75 304.80,307.20"/>
    </edge>
    <edge id=":D3_6" function="internal">
        <lane id=":D3_6_0" index="0" speed="13.89" length="20.80" shape="310.40,301.60 289.60,301.60"/>
    </edge>
    <edge id=":D3_7" function="internal">
        <lane id=":D3_7_0" index="0" speed="8.67" length="16.85" shape="310.40,301.60 305.15,301.05 301.40,299.40 299.15,296.65 298.40,292.80"/>
    </edge>
    <edge id=":D3_8" function="internal">
        <lane id=":D3_8_0" index="0" speed="3.65" length="4.67" shape="310.40,301.60 309.20,300.80 308.80,300.00 309.20,299.20 310.40,298.40"/>
    </edge>
    <edge id=":D3_9" function="internal">
        <lane id=":D3_9_0" index="0" speed="6.51" length="9.03" shape="304.80,292.80 305.15,295.25 306.20,297.00 307.95,298.05 310.40,298.40"/>
    </edge>
    <edge id=":D3_10" function="internal">
        <lane id=":D3_10_0" index="0" speed="13.89" length="14.40" shape="304.80,292.80 304.80,307.20"/>
        <lane id=":D3_10_1" index="1" speed="13.89" length="14.40" shape="301.60,292.80 301.60,307.20"/>
    </edge>
    <edge id=":D3_12" function="internal">
        <lane id=":D3_12_0" index="0" speed="8.67" length="3.71" shape="301.60,292.80 300.89,296.44"/>
    </edge>
    <edge id=":D3_13" function="internal">
        <lane id=":D3_13_0" index="0" speed="3.65" length="1.44" shape="301.60,292.80 300.80,294.00"/>
    </edge>
    <edge id=":D3_20" function="internal">
        <lane id=":D3_20_0" index="0" speed="8.67" length="13.14" shape="300.89,296.44 300.85,296.65 298.60,299.40 294.85,301.05 289.60,301.60"/>
    </edge>
    <edge id=":D3_21" function="internal">
        <lane id=":D3_21_0" index="0" speed="3.65" length="3.23" shape="300.80,294.00 300.00,294.40 299.20,294.00 298.40,292.80"/>
    </edge>
    <edge id=":D3_14" function="internal">
        <lane id=":D3_14_0" index="0" speed="6.51" length="9.03" shape="289.60,298.40 292.05,298.05 293.80,297.00 294.85,295.25 295.20,292.80"/>
    </edge>
    <edge id=":D3_15" function="internal">
        <lane id=":D3_15_0" index="0" speed="13.89" length="20.80" shape="289.60,298.40 310.40,298.40"/>
    </edge>
    <edge id=":D3_16" function="internal">
        <lane id=":D3_16_0" index="0" speed="8.67" length="16.85" shape="289.60,298.40 294.85,298.95 298.60,300.60 300.85,303.35 301.60,307.20"/>
    </edge>
    <edge id=":D3_17" function="internal">
        <lane id=":D3_17_0" index="0" speed="3.65" length="4.67" shape="289.60,298.40 290.80,299.20 291.20,300.00 290.80,300.80 289.60,301.60"/>
    </edge>
    <edge id=":D4_0" function="internal">
        <lane id=":D4_0_0" index="0" speed="12.38" length="35.45" shape="310.40,617.60 303.75,615.85 299.00,610.60 296.15,601.85 295.20,589.60"/>
        <lane id=":D4_0_1" index="1" speed="11.49" length="30.39" shape="310.40,614.40 305.15,612.85 301.40,608.20 299.15,600.45 298.40,589.60"/>
    </edge>
    <edge id=":D4_2" function="internal">
        <lane id=":D4_2_0" index="0" speed="3.65" length="4.67" shape="310.40,601.60 309.20,600.80 308.80,600.00 309.20,599.20 310.40,598.40"/>
    </edge>
    <edge id=":D4_3" function="internal">
        <lane id=":D4_3_0" index="0" speed="6.51" length="9.03" shape="304.80,589.60 305.15,592.05 306.20,593.80 307.95,594.85 310.40,595.20"/>
        <lane id=":D4_3_1" index="1" speed="8.00" length="14.19" shape="301.60,589.60 302.15,593.45 303.80,596.20 306.55,597.85 310.40,598.40"/>
    </edge>
    <edge id=":E0_0" function="internal">
        <lane id=":E0_0_0" index="0" speed="5.04" length="5.00" shape="598.40,4.70 598.21,3.34 597.62,2.37 596.66,1.79 595.30,1.60"/>
    </edge>
    <edge id=":E1_0" function="internal">
        <lane id=":E1_0_0" index="0" speed="6.51" length="9.03" shape="598.40,107.20 598.05,104.75 597.00,103.00 595.25,101.95 592.80,101.60"/>
    </edge>
    <edge id=":E1_1" function="internal">
        <lane id=":E1_1_0" index="0" speed="13.89" length="11.20" shape="598.40,107.20 598.40,96.00"/>
    </edge>
    <edge id=":E1_2" function="internal">
        <lane id=":E1_2_0" index="0" speed="3.65" length="1.44" shape="598.40,107.20 599.20,106.00"/>
    </edge>
    <edge id=":E1_6" function="internal">
        <lane id=":E1_6_0" index="0" speed="3.65" length="3.23" shape="599.20,106.00 600.00,105.60 600.80,106.00 601.60,107.20"/>
    </edge>
    <edge id=":E1_3" function="internal">
        <lane id=":E1_3_0" index="0" speed="13.89" length="11.20" shape="601.60,96.00 601.60,107.20"/>
    </edge>
    <edge id=":E1_4" function="internal">
        <lane id=":E1_4_0" index="0" speed="7.33" length="2.51" shape="601.60,96.00 601.05,98.45"/>
    </edge>
    <edge id=":E1_5" function="internal">
        <lane id=":E1_5_0" index="0" speed="3.65" length="1.44" shape="601.60,96.00 600.80,97.20"/>
    </edge>
    <edge id=":E1_7" function="internal">
        <lane id=":E1_7_0" index="0" speed="7.33" length="9.21" shape="601.05,98.45 599.40,100.20 596.65,101.25 592.80,101.60"/>
    </edge>
    <edge id=":E1_8" function="internal">
        <lane id=":E1_8_0" index="0" speed="3.65" length="3.23" shape="600.80,97.20 600.00,97.60 599.20,97.20 598.40,96.00"/>
    </edge>
    <edge id=":E2_0" function="internal">
        <lane id=":E2_0_0" index="0" speed="6.50" length="9.03" shape="598.40,206.12 598.05,203.67 597.00,201.92 595.25,200.88 592.79,200.54"/>
    </edge>
    <edge id=":E2_1" function="internal">
        <lane id=":E2_1_0" index="0" speed="13.89" length="11.20" shape="598.40,206.12 598.40,194.92"/>
    </edge>
    <edge id=":E2_2" function="internal">
        <lane id=":E2_2_0" index="0" speed="3.65" length="1.44" shape="598.40,206.12 599.20,204.92"/>
    </edge>
    <edge id=":E2_6" function="internal">
        <lane id=":E2_6_0" index="0" speed="3.65" length="3.23" shape="599.20,204.92 600.00,204.52 600.80,204.92 601.60,206.12"/>
    </edge>
    <edge id=":E2_3" function="internal">
        <lane id=":E2_3_0" index="0" speed="13.89" length="11.20" shape="601.60,194.92 601.60,206.12"/>
    </edge>
    <edge id=":E2_4" function="internal">
        <lane id=":E2_4_0" index="0" speed="7.34" length="2.51" shape="601.60,194.92 601.05,197.37"/>
    </edge>
    <edge id=":E2_5" function="internal">
        <lane id=":E2_5_0" index="0" speed="3.65" length="1.44" shape="601.60,194.92 600.80,196.12"/>
    </edge>
    <edge id=":E2_7" function="internal">
        <lane id=":E2_7_0" index="0" speed="7.34" length="9.22" shape="601.05,197.37 599.40,199.12 596.65,200.17 592.79,200.54"/>
    </edge>
    <edge id=":E2_8" function="internal">
        <lane id=":E2_8_0" index="0" speed="3.65" length="3.23" shape="600.80,196.12 600.00,196.52 599.20,196.12 598.40,194.92"/>
    </edge>
    <edge id=":E3_0" function="internal">
        <lane id=":E3_0_0" index="0" speed="6.51" length="9.03" shape="598.40,307.20 598.05,304.75 597.00,303.00 595.25,301.95 592.80,301.60"/>
    </edge>
    <edge id=":E3_1" function="internal">
        <lane id=":E3_1_0" index="0" speed="3.65" length="4.67" shape="598.40,307.20 599.20,306.00 600.00,305.60 600.80,306.00 601.60,307.20"/>
    </edge>
    <edge id=":E3_2" function="internal">
        <lane id=":E3_2_0" index="0" speed="3.65" length="4.67" shape="601.60,292.80 600.80,294.00 600.00,294.40 599.20,294.00 598.40,292.80"/>
    </edge>
    <edge id=":E3_3" function="internal">
        <lane id=":E3_3_0" index="0" speed="6.51" length="9.03" shape="592.80,298.40 595.25,298.05 597.00,297.00 598.05,295.25 598.40,292.80"/>
    </edge>
    <edge id=":E3_4" function="internal">
        <lane id=":E3_4_0" index="0" speed="8.00" length="14.19" shape="592.80,298.40 596.65,298.95 599.40,300.60 601.05,303.35 601.60,307.20"/>
    </edge>
    <edge id=":E4_0" function="internal">
        <lane id=":E4_0_0" index="0" speed="13.89" length="14.28" shape="607.02,617.65 592.80,617.60"/>
        <lane id=":E4_0_1" index="1" speed="13.89" length="14.28" shape="607.05,614.45 592.80,614.40"/>
        <lane id=":E4_0_2" index="2" speed="13.89" length="14.28" shape="607.07,611.25 592.80,611.20"/>
        <lane id=":E4_0_3" index="3" speed="13.89" length="14.28" shape="607.09,608.05 592.80,608.00"/>
        <lane id=":E4_0_4" index="4" speed="13.89" length="14.28" shape="607.12,604.85 592.80,604.80"/>
        <lane id=":E4_0_5" index="5" speed="13.89" length="14.28" shape="607.14,601.65 592.80,601.60"/>
    </edge>
    <edge id=":E4_6" function="internal">
        <lane id=":E4_6_0" index="0" speed="8.69" length="3.67" shape="607.14,601.65 603.55,600.92"/>
    </edge>
    <edge id=":E4_15" function="internal">
        <lane id=":E4_15_0" index="0" speed="8.69" length="13.16" shape="603.55,600.92 603.32,600.88 600.59,598.61 598.95,594.85 598.40,589.60"/>
    </edge>
    <edge id=":E4_7" function="internal">
        <lane id=":E4_7_0" index="0" speed="6.53" length="9.05" shape="601.60,589.60 601.95,592.06 603.00,593.82 604.74,594.88 607.19,595.25"/>
    </edge>
    <edge id=":E4_8" function="internal">
        <lane id=":E4_8_0" index="0" speed="10.54" length="25.39" shape="601.60,589.60 601.05,599.05 599.40,605.80 596.65,609.85 592.80,611.20"/>
        <lane id=":E4_8_1" index="1" speed="9.94" length="22.48" shape="601.60,589.60 601.05,597.65 599.40,603.40 596.65,606.85 592.80,608.00"/>
        <lane id=":E4_8_2" index="2" speed="9.32" length="19.63" shape="601.60,589.60 601.05,596.25 599.40,601.00 596.65,603.85 592.80,604.80"/>
        <lane id=":E4_8_3" index="3" speed="8.67" length="16.85" shape="601.60,589.60 601.05,594.85 599.40,598.60 596.65,600.85 592.80,601.60"/>
    </edge>
    <edge id=":E4_12" function="internal">
        <lane id=":E4_12_0" index="0" speed="6.51" length="9.03" shape="592.80,595.20 595.25,594.85 597.00,593.80 598.05,592.05 598.40,589.60"/>
    </edge>
    <edge id=":E4_13" function="internal">
        <lane id=":E4_13_0" index="0" speed="13.89" length="14.38" shape="592.80,595.20 607.19,595.25"/>
        <lane id=":E4_13_1" index="1" speed="13.89" length="14.38" shape="592.80,598.40 607.16,598.45"/>
    </edge>

    <edge id="-E0" from="J0" to="E4" priority="-1">
        <lane id="-E0_0" index="0" speed="13.89" length="78.08" shape="685.10,618.23 607.02,617.65"/>
        <lane id="-E0_1" index="1" speed="13.89" length="78.08" shape="685.12,615.03 607.05,614.45"/>
        <lane id="-E0_2" index="2" speed="13.89" length="78.08" shape="685.15,611.83 607.07,611.25"/>
        <lane id="-E0_3" index="3" speed="13.89" length="78.08" shape="685.17,608.63 607.09,608.05"/>
        <lane id="-E0_4" index="4" speed="13.89" length="78.08" shape="685.19,605.43 607.12,604.85"/>
        <lane id="-E0_5" index="5" speed="13.89" length="78.08" shape="685.22,602.23 607.14,601.65"/>
    </edge>
    <edge id="-E3" from="D3" to="C3" priority="-1">
        <lane id="-E3_0" index="0" speed="13.89" length="282.40" shape="289.60,301.60 7.20,301.60"/>
    </edge>
    <edge id="-E6" from="E3" to="D3" priority="-1" spreadType="roadCenter">
        <lane id="-E6_0" index="0" speed="13.89" length="282.40" shape="592.80,301.60 310.40,301.60"/>
    </edge>
    <edge id="C1C2" from="C0" to="C2" priority="-1">
        <lane id="C1C2_0" index="0" speed="13.89" length="192.80" shape="1.60,3.20 1.60,196.00"/>
    </edge>
    <edge id="D0C0" from="D0" to="C0" priority="-1">
        <lane id="D0C0_0" index="0" speed="13.89" length="286.40" shape="289.60,1.60 3.20,1.60"/>
    </edge>
    <edge id="D0D1" from="D0" to="D1" priority="-1" shape="300.00,0.00 300.10,100.10">
        <lane id="D0D1_0" index="0" speed="13.89" length="88.80" shape="304.81,7.20 304.90,96.00"/>
        <lane id="D0D1_1" index="1" speed="13.89" length="88.80" shape="301.61,7.20 301.70,96.00"/>
    </edge>
    <edge id="D1D0" from="D1" to="D0" priority="-1" shape="300.10,100.10 300.00,0.00">
        <lane id="D1D0_0" index="0" speed="13.89" length="88.80" shape="295.30,96.01 295.21,7.21"/>
        <lane id="D1D0_1" index="1" speed="13.89" length="88.80" shape="298.50,96.01 298.41,7.21"/>
    </edge>
    <edge id="D1D2" from="D1" to="D2" priority="-1">
        <lane id="D1D2_0" index="0" speed="13.89" length="88.78" shape="304.80,107.20 304.80,195.98"/>
        <lane id="D1D2_1" index="1" speed="13.89" length="88.78" shape="301.60,107.20 301.60,195.98"/>
    </edge>
    <edge id="D2C2" from="D2" to="C2" priority="-1">
        <lane id="D2C2_0" index="0" speed="13.89" length="282.40" shape="289.60,201.60 7.20,201.60"/>
    </edge>
    <edge id="D2D1" from="D2" to="D1" priority="-1">
        <lane id="D2D1_0" index="0" speed="13.89" length="88.78" shape="295.20,195.98 295.20,107.20"/>
        <lane id="D2D1_1" index="1" speed="13.89" length="88.78" shape="298.40,195.98 298.40,107.20"/>
    </edge>
    <edge id="D2D3" from="D2" to="D3" priority="-1">
        <lane id="D2D3_0" index="0" speed="13.89" length="85.60" shape="304.80,207.20 304.80,292.80"/>
        <lane id="D2D3_1" index="1" speed="13.89" length="85.60" shape="301.60,207.20 301.60,292.80"/>
    </edge>
    <edge id="D3D2" from="D3" to="D2" priority="-1">
        <lane id="D3D2_0" index="0" speed="13.89" length="85.60" shape="295.20,292.80 295.20,207.20"/>
        <lane id="D3D2_1" index="1" speed="13.89" length="85.60" shape="298.40,292.80 298.40,207.20"/>
    </edge>
    <edge id="D3D4" from="D3" to="D4" priority="-1">
        <lane id="D3D4_0" index="0" speed="13.89" length="282.40" shape="304.80,307.20 304.80,589.60"/>
        <lane id="D3D4_1" index="1" speed="13.89" length="282.40" shape="301.60,307.20 301.60,589.60"/>
    </edge>
    <edge id="D4D3" from="D4" to="D3" priority="-1">
        <lane id="D4D3_0" index="0" speed="13.89" length="282.40" shape="295.20,589.60 295.20,307.20"/>
        <lane id="D4D3_1" index="1" speed="13.89" length="282.40" shape="298.40,589.60 298.40,307.20"/>
    </edge>
    <edge id="D4E4" from="D4" to="E4" priority="-1">
        <lane id="D4E4_0" index="0" speed="13.89" length="282.40" shape="310.40,595.20 592.80,595.20"/>
        <lane id="D4E4_1" index="1" speed="13.89" length="282.40" shape="310.40,598.40 592.80,598.40"/>
    </edge>
    <edge id="E0" from="E4" to="J0" priority="-1">
        <lane id="E0_0" index="0" speed="13.89" length="78.08" shape="607.19,595.25 685.27,595.83"/>
        <lane id="E0_1" index="1" speed="13.89" length="78.08" shape="607.16,598.45 685.24,599.03"/>
    </edge>
    <edge id="E0D0" from="E0" to="D0" priority="-1">
        <lane id="E0D0_0" index="0" speed="13.89" length="284.90" shape="595.30,1.60 310.40,1.60"/>
    </edge>
    <edge id="E0E1" from="E0" to="E1" priority="-1" shape="600.00,0.00 500.00,0.00 600.00,0.00 600.00,100.00">
        <lane id="E0E1_0" index="0" speed="13.89" length="91.30" shape="601.60,4.70 601.60,96.00"/>
    </edge>
    <edge id="E1D1" from="E1" to="D1" priority="-1">
        <lane id="E1D1_0" index="0" speed="13.89" length="282.30" shape="592.80,101.60 310.50,101.60"/>
    </edge>
    <edge id="E1E0" from="E1" to="E0" priority="-1" shape="600.00,100.00 600.00,0.00 500.00,0.00 600.00,0.00">
        <lane id="E1E0_0" index="0" speed="13.89" length="91.30" shape="598.40,96.00 598.40,4.70"/>
    </edge>
    <edge id="E1E2" from="E1" to="E2" priority="-1">
        <lane id="E1E2_0" index="0" speed="13.89" length="87.72" shape="601.60,107.20 601.60,194.92"/>
    </edge>
    <edge id="E2D2" from="E2" to="D2" priority="-1">
        <lane id="E2D2_0" index="0" speed="13.89" length="282.39" shape="592.79,200.54 310.41,201.56"/>
    </edge>
    <edge id="E2E1" from="E2" to="E1" priority="-1">
        <lane id="E2E1_0" index="0" speed="13.89" length="87.72" shape="598.40,194.92 598.40,107.20"/>
    </edge>
    <edge id="E2E3" from="E2" to="E3" priority="-1">
        <lane id="E2E3_0" index="0" speed="13.89" length="86.68" shape="601.60,206.12 601.60,292.80"/>
    </edge>
    <edge id="E3" from="C3" to="D3" priority="-1">
        <lane id="E3_0" index="0" speed="13.89" length="282.40" shape="7.20,298.40 289.60,298.40"/>
    </edge>
    <edge id="E3E2" from="E3" to="E2" priority="-1">
        <lane id="E3E2_0" index="0" speed="13.89" length="86.68" shape="598.40,292.80 598.40,206.12"/>
    </edge>
    <edge id="E3E4" from="E3" to="E4" priority="-1">
        <lane id="E3E4_0" index="0" speed="13.89" length="282.40" shape="601.60,307.20 601.60,589.60"/>
    </edge>
    <edge id="E4D4" from="E4" to="D4" priority="-1">
        <lane id="E4D4_0" index="0" speed="13.89" length="282.40" shape="592.80,617.60 310.40,617.60"/>
        <lane id="E4D4_1" index="1" speed="13.89" length="282.40" shape="592.80,614.40 310.40,614.40"/>
        <lane id="E4D4_2" index="2" speed="13.89" length="282.40" shape="592.80,611.20 310.40,611.20"/>
        <lane id="E4D4_3" index="3" speed="13.89" length="282.40" shape="592.80,608.00 310.40,608.00"/>
        <lane id="E4D4_4" index="4" speed="13.89" length="282.40" shape="592.80,604.80 310.40,604.80"/>
        <lane id="E4D4_5" index="5" speed="13.89" length="282.40" shape="592.80,601.60 310.40,601.60"/>
    </edge>
    <edge id="E4E3" from="E4" to="E3" priority="-1">
        <lane id="E4E3_0" index="0" speed="13.89" length="282.40" shape="598.40,589.60 598.40,307.20"/>
    </edge>
    <edge id="E5" from="C2" to="C3" priority="-1">
        <lane id="E5_0" index="0" speed="13.89" length="85.60" shape="1.60,207.20 1.60,292.80"/>
    </edge>
    <edge id="E6" from="D3" to="E3" priority="-1" spreadType="roadCenter">
        <lane id="E6_0" index="0" speed="13.89" length="282.40" shape="310.40,298.40 592.80,298.40"/>
    </edge>

    <junction id="C0" type="priority" x="0.00" y="0.00" incLanes="D0C0_0" intLanes=":C0_0_0" shape="0.00,3.20 3.20,3.20 3.20,0.00 1.42,0.36 0.80,0.80 0.36,1.42 0.09,2.22">
        <request index="0" response="0" foes="0" cont="0"/>
    </junction>
    <junction id="C2" type="priority" x="0.00" y="200.00" incLanes="D2C2_0 C1C2_0" intLanes=":C2_0_0 :C2_1_0" shape="0.00,207.20 3.20,207.20 3.64,204.98 4.20,204.20 4.98,203.64 5.98,203.31 7.20,203.20 7.20,200.00 4.98,199.56 4.20,199.00 3.64,198.22 3.31,197.22 3.20,196.00 0.00,196.00">
        <request index="0" response="00" foes="10" cont="0"/>
        <request index="1" response="01" foes="01" cont="0"/>
    </junction>
    <junction id="C3" type="priority" x="0.00" y="300.00" incLanes="-E3_0 E5_0" intLanes=":C3_2_0 :C3_1_0" shape="7.20,303.20 7.20,296.80 4.98,296.36 4.20,295.80 3.64,295.02 3.31,294.02 3.20,292.80 0.00,292.80 0.20,295.98 0.80,298.58 1.80,300.60 3.20,302.04 5.00,302.91">
        <request index="0" response="10" foes="10" cont="1"/>
        <request index="1" response="00" foes="01" cont="0"/>
    </junction>
    <junction id="D0" type="priority" x="300.00" y="0.00" incLanes="D1D0_0 D1D0_1 E0D0_0" intLanes=":D0_0_0 :D0_1_0 :D0_2_0 :D0_2_1 :D0_4_0" shape="293.61,7.21 306.41,7.20 306.85,4.98 307.40,4.20 308.18,3.64 309.18,3.31 310.40,3.20 310.40,0.00 289.60,0.00 289.60,3.20 291.83,3.65 292.60,4.20 293.16,4.98 293.49,5.99">
        <request index="0" response="00000" foes="10000" cont="0"/>
        <request index="1" response="01100" foes="01100" cont="0"/>
        <request index="2" response="00000" foes="00010" cont="0"/>
        <request index="3" response="00000" foes="00010" cont="0"/>
        <request index="4" response="00001" foes="00001" cont="0"/>
    </junction>
    <junction id="D1" type="priority" x="300.00" y="100.00" incLanes="D2D1_0 D2D1_1 E1D1_0 D0D1_0 D0D1_1" intLanes=":D1_0_0 :D1_0_1 :D1_8_0 :D1_3_0 :D1_4_0 :D1_5_0 :D1_5_1 :D1_9_0" shape="293.60,107.20 306.40,107.20 306.86,104.98 307.42,104.20 308.22,103.64 309.25,103.31 310.50,103.20 310.50,100.00 308.28,99.56 307.50,99.00 306.94,98.22 306.61,97.22 306.50,96.00 293.70,96.01">
        <request index="0" response="00000000" foes="10010000" cont="0"/>
        <request index="1" response="00000000" foes="10010000" cont="0"/>
        <request index="2" response="01100000" foes="01100000" cont="1"/>
        <request index="3" response="01100000" foes="01100000" cont="0"/>
        <request index="4" response="01100011" foes="11100011" cont="0"/>
        <request index="5" response="00000000" foes="00011100" cont="0"/>
        <request index="6" response="00000000" foes="00011100" cont="0"/>
        <request index="7" response="00010011" foes="00010011" cont="1"/>
    </junction>
    <junction id="D2" type="priority" x="300.00" y="200.00" incLanes="D3D2_0 D3D2_1 E2D2_0 D1D2_0 D1D2_1" intLanes=":D2_0_0 :D2_1_0 :D2_1_1 :D2_11_0 :D2_4_0 :D2_5_0 :D2_6_0 :D2_7_0 :D2_7_1 :D2_12_0 :D2_13_0" shape="293.60,207.20 306.40,207.20 306.85,204.96 307.40,204.18 308.18,203.62 309.19,203.28 310.41,203.16 310.40,199.96 308.18,199.53 307.40,198.97 306.84,198.20 306.51,197.20 306.40,195.98 293.60,195.98 293.16,198.21 292.60,198.99 291.82,199.55 290.82,199.89 289.60,200.00 289.60,203.20 291.82,203.64 292.60,204.20 293.16,204.98 293.49,205.98">
        <request index="0"  response="00000000000" foes="01000100000" cont="0"/>
        <request index="1"  response="00000000000" foes="11001100000" cont="0"/>
        <request index="2"  response="00000000000" foes="11001100000" cont="0"/>
        <request index="3"  response="00110000000" foes="00110000000" cont="1"/>
        <request index="4"  response="00110000000" foes="00110000000" cont="0"/>
        <request index="5"  response="01110000111" foes="01110000111" cont="0"/>
        <request index="6"  response="01110000110" foes="11110000110" cont="0"/>
        <request index="7"  response="00000000000" foes="00001111000" cont="0"/>
        <request index="8"  response="00000000000" foes="00001111000" cont="0"/>